** Parameter extraction 
.lib /home/draju/eda-technology/scn4m_subm/models/scn4m_cnrs_bsim3v1.lib nom
.temp 25

vds out 0 dc 5
vid out D dc 0
M1 D D 0 0 scmosn w=2.5u l=1u m=1
.dc vds 0 5 0.001

.control
run
plot (vid#branch*2)^0.5 vs v(D)
.endc
.end
